[General]
network = AodvNetwork
sim-time-limit = 600s
description = "AODV Simulation based on Perkins paper"

# Các thông s? c?u h́nh s? du?c Thêm vào dây
